
#======================================================================
# CRYSTAL DATA
#----------------------------------------------------------------------
data_VESTA_phase_1

_chemical_name_common                  'Y2 Ti4 Fe18'
_cell_length_a                         8.186244
_cell_length_b                         8.186244
_cell_length_c                         4.892896
_cell_angle_alpha                      90.000000
_cell_angle_beta                       90.000000
_cell_angle_gamma                      90.000000
_cell_volume                           327.895436
_space_group_name_H-M_alt              'P4/mbm'
_space_group_IT_number                 127

loop_
_space_group_symop_operation_xyz
   'x, y, z'

loop_
   _atom_site_label
   _atom_site_occupancy
   _atom_site_fract_x
   _atom_site_fract_y
   _atom_site_fract_z
   _atom_site_adp_type
   _atom_site_U_iso_or_equiv
   _atom_site_type_symbol
   Y0         1.0     0.000000     0.000000     0.000000    Uiso  ? Y
   Y1         1.0     0.500000     0.500000     0.000000    Uiso  ? Y
   Ti2        1.0     0.378755     0.121245     0.000000    Uiso  ? Ti
   Ti3        1.0     0.878755     0.378755     0.000000    Uiso  ? Ti
   Ti4        1.0     0.121245     0.621245     0.000000    Uiso  ? Ti
   Ti5        1.0     0.621245     0.878755     0.000000    Uiso  ? Ti
   Fe6        1.0     0.677077     0.177077     0.239079    Uiso  ? Fe
   Fe7        1.0     0.177077     0.322923     0.239079    Uiso  ? Fe
   Fe8        1.0     0.822923     0.677077     0.239079    Uiso  ? Fe
   Fe9        1.0     0.322923     0.822923     0.239079    Uiso  ? Fe
   Fe10       1.0     0.500000     0.000000     0.499999    Uiso  ? Fe
   Fe11       1.0     0.212353     0.066578     0.499999    Uiso  ? Fe
   Fe12       1.0     0.933422     0.212353     0.499999    Uiso  ? Fe
   Fe13       1.0     0.433422     0.287648     0.499999    Uiso  ? Fe
   Fe14       1.0     0.712353     0.433422     0.499999    Uiso  ? Fe
   Fe15       1.0     0.000000     0.500000     0.499999    Uiso  ? Fe
   Fe16       1.0     0.287648     0.566578     0.499999    Uiso  ? Fe
   Fe17       1.0     0.566578     0.712353     0.499999    Uiso  ? Fe
   Fe18       1.0     0.066578     0.787648     0.499999    Uiso  ? Fe
   Fe19       1.0     0.787648     0.933422     0.499999    Uiso  ? Fe
   Fe20       1.0     0.677077     0.177077     0.760921    Uiso  ? Fe
   Fe21       1.0     0.177077     0.322923     0.760921    Uiso  ? Fe
   Fe22       1.0     0.822923     0.677077     0.760921    Uiso  ? Fe
   Fe23       1.0     0.322923     0.822923     0.760921    Uiso  ? Fe
